@<TRIPOS>MOLECULE
SML
   15    16     1     0     0
SMALL
bcc


@<TRIPOS>ATOM
      1 O1           8.1330     1.1750    35.9460 o        900 SML      -0.617500
      2 O2          11.3700     2.0770    39.1480 o        900 SML      -0.633500
      3 N1          10.4460     3.8630    38.0180 n        900 SML      -0.513400
      4 N2           8.0310     4.1780    35.5240 na       900 SML      -0.265900
      5 N3           9.7520     1.6340    37.5470 n        900 SML      -0.581500
      6 N4           9.3210     5.5840    36.6890 nc       900 SML      -0.683000
      7 C1           8.7760     3.4040    36.3650 cd       900 SML      -0.354200
      8 C2           9.5530     4.2930    37.0620 cc       900 SML       0.487200
      9 C3           8.8180     1.9880    36.5580 c        900 SML       0.762100
     10 C4          10.5820     2.5000    38.3010 c        900 SML       0.815500
     11 C5           8.3950     5.4820    35.7560 cd       900 SML       0.451400
     12 H1          11.0010     4.5560    38.5100 hn       900 SML       0.368500
     13 H2           7.3430     3.8580    34.8550 hn       900 SML       0.328700
     14 H3           9.8440     0.6420    37.7470 hn       900 SML       0.359500
     15 H4           7.9480     6.3030    35.2120 h5       900 SML       0.074100
@<TRIPOS>BOND
     1     1     9 2   
     2     2    10 2   
     3     3     8 1   
     4     3    10 1   
     5     3    12 1   
     6     4     7 1   
     7     4    11 1   
     8     4    13 1   
     9     5     9 1   
    10     5    10 1   
    11     5    14 1   
    12     6     8 1   
    13     6    11 2   
    14     7     8 2   
    15     7     9 1   
    16    11    15 1   
@<TRIPOS>SUBSTRUCTURE
     1 SML         1 TEMP              0 ****  ****    0 ROOT
