135398638
  -OEChem-08192217283D

 14 15  0     0  0  0  0  0  0999 V2000
   -1.7431    1.9477    0.0003 O   0  0  0  0  0  0  0  0  0  0  0  0
    1.2295    1.3797   -0.0003 N   0  0  0  0  0  0  0  0  0  0  0  0
   -1.9828   -0.3588   -0.0002 N   0  0  0  0  0  0  0  0  0  0  0  0
    2.0574   -0.6919    0.0000 N   0  0  0  0  0  0  0  0  0  0  0  0
   -0.1171   -1.8864    0.0002 N   0  0  0  0  0  0  0  0  0  0  0  0
    0.1541    0.5399   -0.0002 C   0  0  0  0  0  0  0  0  0  0  0  0
    0.6883   -0.7301   -0.0001 C   0  0  0  0  0  0  0  0  0  0  0  0
   -1.2485    0.8258   -0.0001 C   0  0  0  0  0  0  0  0  0  0  0  0
    2.3514    0.5921    0.0003 C   0  0  0  0  0  0  0  0  0  0  0  0
   -1.3892   -1.6180    0.0000 C   0  0  0  0  0  0  0  0  0  0  0  0
    1.2071    2.3910   -0.0002 H   0  0  0  0  0  0  0  0  0  0  0  0
   -2.9968   -0.2970   -0.0001 H   0  0  0  0  0  0  0  0  0  0  0  0
    3.3457    1.0157    0.0006 H   0  0  0  0  0  0  0  0  0  0  0  0
   -2.1328   -2.4305    0.0001 H   0  0  0  0  0  0  0  0  0  0  0  0
  1  8  2  0  0  0  0
  2  6  1  0  0  0  0
  2  9  1  0  0  0  0
  2 11  1  0  0  0  0
  3  8  1  0  0  0  0
  3 10  1  0  0  0  0
  3 12  1  0  0  0  0
  4  7  1  0  0  0  0
  4  9  2  0  0  0  0
  5  7  1  0  0  0  0
  5 10  2  0  0  0  0
  6  7  2  0  0  0  0
  6  8  1  0  0  0  0
  9 13  1  0  0  0  0
 10 14  1  0  0  0  0
M  END
> <PUBCHEM_COMPOUND_CID>
135398638

> <PUBCHEM_CONFORMER_RMSD>
0.4

> <PUBCHEM_CONFORMER_DIVERSEORDER>
1

> <PUBCHEM_MMFF94_PARTIAL_CHARGES>
14
1 -0.57
10 0.45
11 0.27
12 0.37
13 0.15
14 0.06
2 0.03
3 -0.49
4 -0.57
5 -0.57
6 -0.24
7 0.35
8 0.71
9 0.04

> <PUBCHEM_EFFECTIVE_ROTOR_COUNT>
0

> <PUBCHEM_PHARMACOPHORE_FEATURES>
6
1 1 acceptor
1 2 donor
1 3 donor
3 2 4 9 cation
5 2 4 6 7 9 rings
6 3 5 6 7 8 10 rings

> <PUBCHEM_HEAVY_ATOM_COUNT>
10

> <PUBCHEM_ATOM_DEF_STEREO_COUNT>
0

> <PUBCHEM_ATOM_UDEF_STEREO_COUNT>
0

> <PUBCHEM_BOND_DEF_STEREO_COUNT>
0

> <PUBCHEM_BOND_UDEF_STEREO_COUNT>
0

> <PUBCHEM_ISOTOPIC_ATOM_COUNT>
0

> <PUBCHEM_COMPONENT_COUNT>
1

> <PUBCHEM_CACTVS_TAUTO_COUNT>
-1

> <PUBCHEM_CONFORMER_ID>
081204EE00000001

> <PUBCHEM_MMFF94_ENERGY>
16.077

> <PUBCHEM_FEATURE_SELFOVERLAP>
30.576

> <PUBCHEM_SHAPE_FINGERPRINT>
16945 1 18338799021578952230
18185500 45 17834397104416697414
21040471 1 18338798909946745284
23552423 10 18188491414301863606
241688 4 18050848020133301763
2748010 2 18266743480429831918
29004967 10 17831020491365100138
5084963 1 18202565076884499266

> <PUBCHEM_SHAPE_MULTIPOLES>
180
2.75
1.91
0.57
0.77
0.06
0
0.24
0
-0.77
0
0.01
-0.01
0

> <PUBCHEM_SHAPE_SELFOVERLAP>
397.848

> <PUBCHEM_SHAPE_VOLUME>
96.3

> <PUBCHEM_COORDINATE_TYPE>
2
5
10

$$$$
