@<TRIPOS>MOLECULE
SML
   21    22     1     0     0
SMALL
bcc


@<TRIPOS>ATOM
      1 C1           9.8580     0.3120    37.7930 c3        34 SML       0.080300
      2 N1           9.7180     1.6530    37.5110 n         34 SML      -0.484400
      3 C2          10.4920     2.5290    38.2040 c         34 SML       0.814500
      4 O2          11.2520     2.0350    39.0330 o         34 SML      -0.635500
      5 N3          10.4700     3.8860    38.0400 n         34 SML      -0.417300
      6 C3          11.2650     4.7520    38.7600 c3        34 SML       0.090300
      7 C4           9.5830     4.2930    37.0920 cc        34 SML       0.487200
      8 C5           8.8130     3.4030    36.4010 cd        34 SML      -0.353200
      9 C6           8.8270     2.0050    36.5620 c         34 SML       0.762100
     10 O6           8.1640     1.1530    35.9760 o         34 SML      -0.624500
     11 N7           8.0410     4.1640    35.5350 na        34 SML      -0.266900
     12 C8           8.3950     5.4540    35.7590 cd        34 SML       0.448400
     13 N9           9.3110     5.5930    36.6790 nc        34 SML      -0.684000
     14 H11          9.9660     0.1640    38.8720 h1        34 SML       0.063700
     15 H12         10.7430    -0.0730    37.2880 h1        34 SML       0.063700
     16 H13          8.9820    -0.2430    37.4520 h1        34 SML       0.063700
     17 H31         10.8900     4.8260    39.7800 h1        34 SML       0.064033
     18 H32         11.2490     5.7410    38.2970 h1        34 SML       0.064033
     19 H33         12.2880     4.3770    38.7750 h1        34 SML       0.064033
     20 HN7          7.3660     3.7900    34.8840 hn        34 SML       0.327700
     21 H8           7.9490     6.2970    35.2240 h5        34 SML       0.072100
@<TRIPOS>BOND
     1     1     2 1   
     2     1    14 1   
     3     1    15 1   
     4     1    16 1   
     5     2     3 1   
     6     2     9 1   
     7     3     4 2   
     8     3     5 1   
     9     5     6 1   
    10     5     7 1   
    11     6    17 1   
    12     6    18 1   
    13     6    19 1   
    14     7     8 2   
    15     7    13 1   
    16     8     9 1   
    17     8    11 1   
    18     9    10 2   
    19    11    12 1   
    20    11    20 1   
    21    12    13 2   
    22    12    21 1   
@<TRIPOS>SUBSTRUCTURE
     1 SML         1 TEMP              0 ****  ****    0 ROOT
